BEGIN OPTIONS
  PRINT_INPUT
  PRINT_FLOWS
END OPTIONS

BEGIN DIMENSIONS
  MAXMVR 10
  MAXPACKAGES 2
END DIMENSIONS

BEGIN PACKAGES
  FRED
  TED
END PACKAGES

BEGIN PERIOD 1
  FRED  8 TED  1 FACTOR 1.0
  TED  1 FRED  9 FACTOR 1.0
  FRED 14 TED  2 FACTOR 1.0
  
  # this tests FACTOR and order of entries
  TED  2 FRED 15 FACTOR 0.50
  TED  2 FRED 15 FACTOR 0.25
  TED  2 FRED 15 FACTOR 1.00
  TED  2 FRED 15 FACTOR 1.0
  TED  2 FRED 15 FACTOR 1.0
  TED  2 FRED 15 FACTOR 1.0
  TED  2 FRED 15 FACTOR 1.0
END PERIOD 1
