# File generated by Flopy version 3.3.7 on 02/14/2023 at 08:31:02.
BEGIN OPTIONS
  READASARRAYS
  PRINT_INPUT
  PRINT_FLOWS
  SAVE_FLOWS
END OPTIONS

BEGIN PERIOD  1
  recharge
    CONSTANT  1.60000000E-09
END PERIOD  1

