# File generated by Flopy version 3.3.7 on 02/14/2023 at 08:31:02.
BEGIN OPTIONS
  PRINT_INPUT
  PRINT_FLOWS
  SAVE_FLOWS
END OPTIONS

BEGIN DIMENSIONS
  MAXBOUND  6
END DIMENSIONS

BEGIN PERIOD  1
  1 9 16      -0.00820000
  1 11 13      -0.00410000
  1 20 14      -0.00390000
  1 26 10  -8.30000000E-04
  1 29 6  -7.20000000E-04
  1 34 12      -0.00430000
END PERIOD  1

