# File generated by Flopy version 3.3.7 on 02/14/2023 at 08:31:02.
BEGIN OPTIONS
  SAVE_FLOWS
END OPTIONS

BEGIN GRIDDATA
  iconvert
    CONSTANT  1
  ss
    CONSTANT  1.00000000E-05
  sy
    CONSTANT       0.20000000
END GRIDDATA

BEGIN PERIOD  1
  STEADY-STATE
END PERIOD  1

