# File generated by Flopy version 3.3.7 on 02/14/2023 at 08:31:02.
BEGIN OPTIONS
  LIST  freyberg.lst
  PRINT_INPUT
  PRINT_FLOWS
  SAVE_FLOWS
END OPTIONS

BEGIN PACKAGES
  dis6  freyberg.dis
  ic6  freyberg.ic
  oc6  freyberg.oc
  npf6  freyberg.npf
  sto6  freyberg.sto
  chd6  freyberg.chd
  riv6  freyberg.riv
  wel6  freyberg.wel
  rch6  freyberg.rch
END PACKAGES

