# File generated by Flopy version 3.3.7 on 02/14/2023 at 08:31:02.
BEGIN OPTIONS
  PRINT_INPUT
  PRINT_FLOWS
  SAVE_FLOWS
END OPTIONS

BEGIN DIMENSIONS
  MAXBOUND  40
END DIMENSIONS

BEGIN PERIOD  1
  1 1 15      20.10000000       0.05000000      20.00000000
  1 2 15      19.87000000       0.05000000      19.75000000
  1 3 15      19.65000000       0.05000000      19.50000000
  1 4 15      19.42000000       0.05000000      19.25000000
  1 5 15      19.19000000       0.05000000      19.00000000
  1 6 15      18.97000000       0.05000000      18.75000000
  1 7 15      18.74000000       0.05000000      18.50000000
  1 8 15      18.51000000       0.05000000      18.25000000
  1 9 15      18.28000000       0.05000000      18.00000000
  1 10 15      19.06000000       0.05000000      17.75000000
  1 11 15      17.83000000       0.05000000      17.50000000
  1 12 15      17.60000000       0.05000000      17.25000000
  1 13 15      17.38000000       0.05000000      17.00000000
  1 14 15      17.15000000       0.05000000      16.75000000
  1 15 15      16.92000000       0.05000000      16.50000000
  1 16 15      16.70000000       0.05000000      16.25000000
  1 17 15      16.47000000       0.05000000      16.00000000
  1 18 15      16.24000000       0.05000000      15.75000000
  1 19 15      16.02000000       0.05000000      15.50000000
  1 20 15      15.79000000       0.05000000      15.25000000
  1 21 15      15.56000000       0.05000000      15.00000000
  1 22 15      15.33000000       0.05000000      14.75000000
  1 23 15      15.11000000       0.05000000      14.50000000
  1 24 15      14.88000000       0.05000000      14.25000000
  1 25 15      14.65000000       0.05000000      14.00000000
  1 26 15      14.43000000       0.05000000      13.75000000
  1 27 15      14.20000000       0.05000000      13.50000000
  1 28 15      13.97000000       0.05000000      13.25000000
  1 29 15      13.75000000       0.05000000      13.00000000
  1 30 15      13.52000000       0.05000000      12.75000000
  1 31 15      13.29000000       0.05000000      12.50000000
  1 32 15      13.07000000       0.05000000      12.25000000
  1 33 15      12.84000000       0.05000000      12.00000000
  1 34 15      12.61000000       0.05000000      11.75000000
  1 35 15      12.38000000       0.05000000      11.50000000
  1 36 15      12.16000000       0.05000000      11.25000000
  1 37 15      11.93000000       0.05000000      11.00000000
  1 38 15      11.70000000       0.05000000      10.75000000
  1 39 15      11.48000000       0.05000000      10.50000000
  1 40 15      11.25000000       0.05000000      10.25000000
END PERIOD  1

