# File generated by Flopy version 3.3.7 on 02/14/2023 at 08:31:02.
BEGIN OPTIONS
  TIME_UNITS  seconds
END OPTIONS

BEGIN DIMENSIONS
  NPER  1
END DIMENSIONS

BEGIN PERIODDATA
      10.00000000  1       1.20000000
END PERIODDATA

