# File generated by Flopy version 3.3.7 on 02/14/2023 at 08:31:02.
BEGIN OPTIONS
  PRINT_INPUT
  PRINT_FLOWS
  SAVE_FLOWS
END OPTIONS

BEGIN DIMENSIONS
  MAXBOUND  10
END DIMENSIONS

BEGIN PERIOD  1
  1 40 6      16.90000000
  1 40 7      16.40000000
  1 40 8      16.10000000
  1 40 9      15.60000000
  1 40 10      15.10000000
  1 40 11      15.10000000
  1 40 12      14.00000000
  1 40 13      13.00000000
  1 40 14      12.50000000
  1 40 15      12.00000000
END PERIOD  1

