# File generated by Flopy version 3.3.7 on 02/14/2023 at 08:31:02.
BEGIN OPTIONS
END OPTIONS

BEGIN TIMING
  TDIS6  freyberg.tdis
END TIMING

BEGIN MODELS
  gwf6  freyberg.nam  freyberg
END MODELS

BEGIN EXCHANGES
END EXCHANGES

BEGIN SOLUTIONGROUP  1
  MXITER  1
  ims6  freyberg.ims  freyberg
END SOLUTIONGROUP  1

